/*---------------------------------------------------------------------------*\
| =========                 |                                                 |
| \\      /  F ield         | OpenFOAM: The Open Source CFD Toolbox           |
|  \\    /   O peration     | Version:  2406                                  |
|   \\  /    A nd           | Website:  www.openfoam.com                      |
|    \\/     M anipulation  |                                                 |
\*---------------------------------------------------------------------------*/
Build  : _9bfe8264-20241212 OPENFOAM=2406 patch=241212 version=2406
Arch   : "LSB;label=32;scalar=64"
Exec   : reactingFoam -case /home/openfoam/case/v1/ChatCFD/run_chatcfd/aoa10_spalartALLMARAS_0
Date   : Dec 01 2025
Time   : 07:34:01
Host   : b670b8fa4884
PID    : 7505
I/O    : uncollated
Case   : /home/openfoam/case/v1/ChatCFD/run_chatcfd/aoa10_spalartALLMARAS_0
nProcs : 1
trapFpe: Floating point exception trapping enabled (FOAM_SIGFPE).
fileModificationChecking : Monitoring run-time modified files using timeStampMaster (fileModificationSkew 5, maxFileModificationPolls 20)
allowSystemOperations : Allowing user-supplied system call operations

// * * * * * * * * * * * * * * * * * * * * * * * * * * * * * * * * * * * * * //
Create time

Create mesh for time = 0
--> FOAM Warning : 
    From Foam::polyMesh::polyMesh(const Foam::IOobject&, bool)
    in file meshes/polyMesh/polyMesh.C at line 330
    Missing mesh boundary on one or more domains
--> FOAM Warning : 
    From Foam::polyMesh::polyMesh(const Foam::IOobject&, bool)
    in file meshes/polyMesh/polyMesh.C at line 336
    No points in mesh
--> FOAM Warning : 
    From Foam::polyMesh::polyMesh(const Foam::IOobject&, bool)
    in file meshes/polyMesh/polyMesh.C at line 341
    No cells in mesh


PIMPLE: no residual control data found. Calculations will employ 2 corrector loops

Reading thermophysical properties

Selecting thermodynamics package 
{
    type            hePsiThermo;
    mixture         reactingMixture;
    transport       sutherland;
    thermo          janaf;
    energy          sensibleEnthalpy;
    equationOfState perfectGas;
    specie          specie;
}

